modelbottoms=Columbia_bots_corr2_SFRcorr.dat # multilayer ascii matrix of model bottoms
L1top=L1top.DAT # ascii matrix of Layer1 top
DIS_file=Columbia.dis # MODFLOW 2000 discretization file
xsname=Col_xsections.pdf # output file name
colors=Peru,SaddleBrown,OliveDrab,CornSilk,Teal,CornSilk # choose any html colors
interval=50 # make a section every nth cell
rows=100,815 # [startrow,endrow]
columns=100,995 # [startcolumn,endcolumn]
Xunits=miles # enter 'feet', 'miles' or 'cells'
linewidth=0 # line width for contacts between layers, in points

